Circuit: * E:\PROECT_Main\VCO\Automation\Project_2nd_LPF_TRAN.asc

Error on line 11 : .save v(in) v(out)
	 Unknown control card
.OP point found by inspection.

Date: Mon Jul 10 12:05:29 2023
Total elapsed time: 0.006 seconds.

tnom = 27
temp = 27
method = modified trap
totiter = 2106
traniter = 2106
tranpoints = 1054
accept = 1053
rejected = 1
matrix size = 4
fillins = 0
solver = Normal
Matrix Compiler1: 100 bytes object code size  0.1/0.0/[0.0]
Matrix Compiler2: 248 bytes object code size  0.0/0.1/[0.0]

