Circuit: * E:\PROECT_Main\VCO\VCO_final.asc

Ignoring BSIM parameter XL
Ignoring BSIM parameter XW
Ignoring BSIM parameter XL
Ignoring BSIM parameter XW
Warning: Pd = 0 is less than W.
Warning: Ps = 0 is less than W.
Warning: Pd = 0 is less than W.
Warning: Ps = 0 is less than W.
Direct Newton iteration for .op point succeeded.
.step vth=0.27785
.step vth=0.308062
.step vth=0.318487
.step vth=0.324852
.step vth=0.324854
.step vth=0.329471
.step vth=0.333206
.step vth=0.33445
.step vth=0.33521
.step vth=0.336001
.step vth=0.336845
.step vth=0.337276
.step vth=0.337276
.step vth=0.338068
.step vth=0.339688
.step vth=0.341231
.step vth=0.343878
.step vth=0.344769
.step vth=0.345226
.step vth=0.34615
.step vth=0.347518
.step vth=0.347977
.step vth=0.348055
.step vth=0.348226
.step vth=0.350917
.step vth=0.351018
.step vth=0.351219
.step vth=0.351483
.step vth=0.352326
.step vth=0.352939
.step vth=0.35382
.step vth=0.354082
.step vth=0.35428
.step vth=0.355406
.step vth=0.355847
.step vth=0.358638
.step vth=0.358956
.step vth=0.36111
.step vth=0.362947
.step vth=0.363141
.step vth=0.36486
.step vth=0.365031
.step vth=0.365188
.step vth=0.365712
.step vth=0.366
.step vth=0.366001
.step vth=0.366058
.step vth=0.367481
.step vth=0.368511
.step vth=0.368844
.step vth=0.37098
.step vth=0.371775
.step vth=0.371777
.step vth=0.372234
.step vth=0.372331
.step vth=0.372384
.step vth=0.372508
.step vth=0.37259
.step vth=0.373019
.step vth=0.373445
.step vth=0.373826
.step vth=0.374603
.step vth=0.374928
.step vth=0.375035
.step vth=0.376008
.step vth=0.376217
.step vth=0.376429
.step vth=0.376881
.step vth=0.377261
.step vth=0.377656
.step vth=0.378071
.step vth=0.379794
.step vth=0.380465
.step vth=0.381351
.step vth=0.381543
.step vth=0.3833
.step vth=0.383702
.step vth=0.383946
.step vth=0.384182
.step vth=0.384873
.step vth=0.385482
.step vth=0.386267
.step vth=0.386283
.step vth=0.389466
.step vth=0.389694
.step vth=0.390517
.step vth=0.390841
.step vth=0.391877
.step vth=0.392095
.step vth=0.392123
.step vth=0.392443
.step vth=0.393632
.step vth=0.395407
.step vth=0.395759
.step vth=0.395833
.step vth=0.395989
.step vth=0.396411
.step vth=0.396449
.step vth=0.396528
.step vth=0.396621
.step vth=0.396778
.step vth=0.39717
.step vth=0.39722
.step vth=0.397754
.step vth=0.397819
.step vth=0.397969
.step vth=0.398168
.step vth=0.39836
.step vth=0.399393
.step vth=0.399571
.step vth=0.40015
.step vth=0.40018
.step vth=0.401152
.step vth=0.401245
.step vth=0.401577
.step vth=0.402191
.step vth=0.402271
.step vth=0.402514
.step vth=0.404847
.step vth=0.405016
.step vth=0.405552
.step vth=0.405795
.step vth=0.405826
.step vth=0.406282
.step vth=0.40632
.step vth=0.406367
.step vth=0.406411
.step vth=0.407593
.step vth=0.407814
.step vth=0.408649
.step vth=0.40927
.step vth=0.410245
.step vth=0.410274
.step vth=0.410514
.step vth=0.411279
.step vth=0.411845
.step vth=0.412113
.step vth=0.413131
.step vth=0.413146
.step vth=0.41336
.step vth=0.413433
.step vth=0.41393
.step vth=0.414432
.step vth=0.414959
.step vth=0.415032
.step vth=0.41529
.step vth=0.41617
.step vth=0.416691
.step vth=0.416794
.step vth=0.417148
.step vth=0.417281
.step vth=0.419085
.step vth=0.419754
.step vth=0.420358
.step vth=0.4207
.step vth=0.421197
.step vth=0.421285
.step vth=0.42168
.step vth=0.422242
.step vth=0.42334
.step vth=0.423519
.step vth=0.423824
.step vth=0.424694
.step vth=0.42471
.step vth=0.425551
.step vth=0.426496
.step vth=0.427169
.step vth=0.427403
.step vth=0.428099
.step vth=0.428237
.step vth=0.428318
.step vth=0.428702
.step vth=0.429136
.step vth=0.429215
.step vth=0.431385
.step vth=0.432511
.step vth=0.433087
.step vth=0.435766
.step vth=0.435879
.step vth=0.436206
.step vth=0.436814
.step vth=0.438162
.step vth=0.439044
.step vth=0.440354
.step vth=0.441318
.step vth=0.442355
.step vth=0.443017
.step vth=0.452564
.step vth=0.453231
.step vth=0.45405
.step vth=0.455225
.step vth=0.456211
.step vth=0.456211
.step vth=0.456431
.step vth=0.462495
.step vth=0.46311
.step vth=0.471398
.step vth=0.491079
.step vth=0.494418
.step vth=0.499733


Measurement: time_period
  step	time_period	FROM	TO
     1	5.46032e-010	9.78402e-010	1.52443e-009
     2	5.69848e-010	1.03753e-009	1.60738e-009
     3	5.78819e-010	1.07638e-009	1.6552e-009
     4	5.77069e-010	7.72967e-010	1.35004e-009
     5	5.84495e-010	1.32978e-009	1.91427e-009
     6	5.8872e-010	1.19882e-009	1.78754e-009
     7	5.92215e-010	1.06871e-009	1.66093e-009
     8	5.93346e-010	1.0246e-009	1.61795e-009
     9	5.87665e-010	7.85811e-010	1.37348e-009
    10	5.94871e-010	1.26643e-009	1.86131e-009
    11	5.95672e-010	1.08781e-009	1.68349e-009
    12	5.9609e-010	1.22202e-009	1.81811e-009
    13	5.91925e-010	7.99111e-010	1.39104e-009
    14	5.96841e-010	1.06324e-009	1.66008e-009
    15	5.96316e-010	9.53593e-010	1.54991e-009
    16	5.93485e-010	7.90638e-010	1.38412e-009
    17	6.02508e-010	1.0649e-009	1.66741e-009
    18	6.03405e-010	1.33913e-009	1.94253e-009
    19	5.97413e-010	7.93841e-010	1.39125e-009
    20	6.04763e-010	1.05631e-009	1.66107e-009
    21	6.06153e-010	1.091e-009	1.69715e-009
    22	5.99384e-010	7.92766e-010	1.39215e-009
    23	6.06703e-010	1.07938e-009	1.68609e-009
    24	6.06872e-010	1.09548e-009	1.70236e-009
    25	6.09358e-010	1.00949e-009	1.61884e-009
    26	6.09717e-010	1.37172e-009	1.98144e-009
    27	6.09766e-010	1.01952e-009	1.62929e-009
    28	6.10201e-010	1.35045e-009	1.96065e-009
    29	6.11059e-010	1.28631e-009	1.89737e-009
    30	6.11682e-010	1.11631e-009	1.72799e-009
    31	6.12577e-010	1.06101e-009	1.67359e-009
    32	6.12868e-010	1.08019e-009	1.69306e-009
    33	6.03736e-010	7.83189e-010	1.38692e-009
    34	6.14247e-010	1.0777e-009	1.69195e-009
    35	6.14723e-010	1.34831e-009	1.96303e-009
    36	6.08371e-010	7.90851e-010	1.39922e-009
    37	6.15859e-010	8.32494e-010	1.44835e-009
    38	6.13001e-010	8.03665e-010	1.41667e-009
    39	6.19016e-010	8.26143e-010	1.44516e-009
    40	6.17495e-010	8.15921e-010	1.43342e-009
    41	6.14498e-010	7.91113e-010	1.40561e-009
    42	6.24564e-010	1.14677e-009	1.77133e-009
    43	6.24742e-010	1.30409e-009	1.92883e-009
    44	6.20685e-010	9.63533e-010	1.58422e-009
    45	6.19799e-010	8.14426e-010	1.43422e-009
    46	6.24124e-010	9.89021e-010	1.61315e-009
    47	6.25668e-010	1.07178e-009	1.69745e-009
    48	6.27265e-010	1.1397e-009	1.76697e-009
    49	6.28342e-010	1.05539e-009	1.68373e-009
    50	6.19117e-010	7.99309e-010	1.41843e-009
    51	6.25815e-010	8.20995e-010	1.44681e-009
    52	6.32077e-010	1.12998e-009	1.76205e-009
    53	6.32076e-010	1.09853e-009	1.73061e-009
    54	6.26937e-010	8.20703e-010	1.44764e-009
    55	6.32717e-010	1.1365e-009	1.76921e-009
    56	6.22731e-010	8.00321e-010	1.42305e-009
    57	6.32922e-010	1.14133e-009	1.77425e-009
    58	6.33017e-010	1.12134e-009	1.75436e-009
    59	6.23968e-010	8.0467e-010	1.42864e-009
    60	6.33995e-010	1.40877e-009	2.04276e-009
    61	6.34417e-010	1.36615e-009	2.00056e-009
    62	6.32236e-010	8.38162e-010	1.4704e-009
    63	6.3564e-010	1.07274e-009	1.70838e-009
    64	6.25249e-010	7.96096e-010	1.42134e-009
    65	6.28727e-010	8.13391e-010	1.44212e-009
    66	6.37142e-010	1.07922e-009	1.71637e-009
    67	6.31481e-010	8.23343e-010	1.45482e-009
    68	6.37942e-010	1.11274e-009	1.75068e-009
    69	6.35907e-010	8.45677e-010	1.48158e-009
    70	6.34847e-010	8.34383e-010	1.46923e-009
    71	6.39336e-010	1.36005e-009	1.99938e-009
    72	6.34775e-010	8.23539e-010	1.45831e-009
    73	6.42156e-010	1.1556e-009	1.79775e-009
    74	6.43204e-010	1.16025e-009	1.80346e-009
    75	6.43439e-010	1.37575e-009	2.01919e-009
    76	6.45502e-010	1.08641e-009	1.73192e-009
    77	6.46018e-010	1.37997e-009	2.02598e-009
    78	6.46302e-010	1.12174e-009	1.76804e-009
    79	6.36481e-010	7.95959e-010	1.43244e-009
    80	6.47367e-010	1.07615e-009	1.72351e-009
    81	6.48146e-010	1.09501e-009	1.74315e-009
    82	6.38846e-010	8.14493e-010	1.45334e-009
    83	6.49149e-010	1.372e-009	2.02115e-009
    84	6.53058e-010	1.41737e-009	2.07043e-009
    85	6.42095e-010	8.13789e-010	1.45588e-009
    86	6.54157e-010	1.06034e-009	1.71449e-009
    87	6.49268e-010	8.39031e-010	1.4883e-009
    88	6.43932e-010	8.08375e-010	1.45231e-009
    89	6.44852e-010	8.03716e-010	1.44857e-009
    90	6.56367e-010	1.12584e-009	1.78221e-009
    91	6.51689e-010	8.42689e-010	1.49438e-009
    92	6.58286e-010	1.43918e-009	2.09747e-009
    93	6.55397e-010	8.45194e-010	1.50059e-009
    94	6.57822e-010	8.57708e-010	1.51553e-009
    95	6.57254e-010	8.52947e-010	1.5102e-009
    96	6.61197e-010	1.08192e-009	1.74312e-009
    97	6.49389e-010	8.1482e-010	1.46421e-009
    98	6.59464e-010	8.65179e-010	1.52464e-009
    99	6.61987e-010	1.16086e-009	1.82284e-009
   100	6.62105e-010	1.40496e-009	2.06707e-009
   101	6.60568e-010	8.73446e-010	1.53401e-009
   102	6.62803e-010	1.14929e-009	1.81209e-009
   103	6.62872e-010	1.20296e-009	1.86583e-009
   104	6.5664e-010	8.3968e-010	1.49632e-009
   105	6.59193e-010	8.51483e-010	1.51068e-009
   106	6.59055e-010	8.49688e-010	1.50874e-009
   107	6.64099e-010	1.42299e-009	2.08709e-009
   108	6.64349e-010	1.18989e-009	1.85424e-009
   109	6.65657e-010	1.11011e-009	1.77577e-009
   110	6.59339e-010	8.42711e-010	1.50205e-009
   111	6.66689e-010	1.19931e-009	1.866e-009
   112	6.66727e-010	1.44409e-009	2.11082e-009
   113	6.62229e-010	8.47979e-010	1.51021e-009
   114	6.59611e-010	8.37283e-010	1.49689e-009
   115	6.58992e-010	8.33714e-010	1.49271e-009
   116	6.69377e-010	1.17699e-009	1.84636e-009
   117	6.69482e-010	1.20116e-009	1.87064e-009
   118	6.6949e-010	1.0644e-009	1.73389e-009
   119	6.69463e-010	8.6503e-010	1.53449e-009
   120	6.59764e-010	8.22731e-010	1.48249e-009
   121	6.65968e-010	8.43874e-010	1.50984e-009
   122	6.74198e-010	1.4701e-009	2.1443e-009
   123	6.68933e-010	8.55101e-010	1.52403e-009
   124	6.74858e-010	1.47341e-009	2.14827e-009
   125	6.74909e-010	1.20087e-009	1.87578e-009
   126	6.74975e-010	1.19036e-009	1.86534e-009
   127	6.75033e-010	1.21145e-009	1.88648e-009
   128	6.76623e-010	1.14367e-009	1.8203e-009
   129	6.7496e-010	8.82135e-010	1.5571e-009
   130	6.68068e-010	8.39768e-010	1.50784e-009
   131	6.73374e-010	8.57453e-010	1.53083e-009
   132	6.80288e-010	1.20898e-009	1.88926e-009
   133	6.67187e-010	8.31193e-010	1.49838e-009
   134	6.6757e-010	8.31707e-010	1.49928e-009
   135	6.81713e-010	1.19565e-009	1.87736e-009
   136	6.82515e-010	1.22846e-009	1.91098e-009
   137	6.82895e-010	1.21292e-009	1.89582e-009
   138	6.81228e-010	8.76847e-010	1.55807e-009
   139	6.82643e-010	8.91659e-010	1.5743e-009
   140	6.8464e-010	1.19765e-009	1.88229e-009
   141	6.76166e-010	8.49764e-010	1.52593e-009
   142	6.74135e-010	8.41848e-010	1.51598e-009
   143	6.86124e-010	1.15465e-009	1.84077e-009
   144	6.8689e-010	1.16746e-009	1.85435e-009
   145	6.80039e-010	8.57455e-010	1.53749e-009
   146	6.87355e-010	1.45176e-009	2.13912e-009
   147	6.75472e-010	8.38349e-010	1.51382e-009
   148	6.89346e-010	1.15628e-009	1.84562e-009
   149	6.7494e-010	8.22342e-010	1.49728e-009
   150	6.81829e-010	8.5533e-010	1.53716e-009
   151	6.89961e-010	1.09051e-009	1.78048e-009
   152	6.92801e-010	1.15438e-009	1.84718e-009
   153	6.90851e-010	8.85504e-010	1.57636e-009
   154	6.94666e-010	1.18558e-009	1.88025e-009
   155	6.9217e-010	8.86016e-010	1.57819e-009
   156	6.91941e-010	8.79362e-010	1.5713e-009
   157	6.93723e-010	8.93332e-010	1.58706e-009
   158	6.90474e-010	8.68222e-010	1.5587e-009
   159	6.97437e-010	1.23014e-009	1.92758e-009
   160	6.92299e-010	8.67505e-010	1.5598e-009
   161	6.9933e-010	1.23655e-009	1.93588e-009
   162	6.92013e-010	8.64098e-010	1.55611e-009
   163	7.00836e-010	1.10036e-009	1.80119e-009
   164	6.96883e-010	8.81799e-010	1.57868e-009
   165	6.92928e-010	8.6052e-010	1.55345e-009
   166	6.97268e-010	8.71959e-010	1.56923e-009
   167	7.04823e-010	1.21537e-009	1.92019e-009
   168	6.94723e-010	8.59787e-010	1.55451e-009
   169	7.06233e-010	1.20224e-009	1.90847e-009
   170	7.06447e-010	1.2225e-009	1.92895e-009
   171	7.06574e-010	1.24765e-009	1.95423e-009
   172	7.07116e-010	1.14498e-009	1.85209e-009
   173	7.07826e-010	1.25688e-009	1.96471e-009
   174	7.07923e-010	1.15862e-009	1.86655e-009
   175	7.00612e-010	8.63533e-010	1.56415e-009
   176	7.10826e-010	9.07504e-010	1.61833e-009
   177	7.13959e-010	1.43455e-009	2.14851e-009
   178	7.18199e-010	1.23801e-009	1.95621e-009
   179	7.18378e-010	1.24683e-009	1.96521e-009
   180	7.189e-010	1.25292e-009	1.97182e-009
   181	7.04321e-010	9.98106e-010	1.70243e-009
   182	7.22042e-010	1.21653e-009	1.93857e-009
   183	7.23473e-010	1.28266e-009	2.00613e-009
   184	7.14296e-010	8.72736e-010	1.58703e-009
   185	7.24222e-010	9.10922e-010	1.63514e-009
   186	7.25651e-010	9.09815e-010	1.63547e-009
   187	7.21287e-010	8.83509e-010	1.6048e-009
   188	7.25373e-010	8.69973e-010	1.59535e-009
   189	7.28728e-010	8.74292e-010	1.60302e-009
   190	7.46706e-010	9.35097e-010	1.6818e-009
   191	7.51044e-010	1.27751e-009	2.02856e-009
   192	7.41848e-010	8.93743e-010	1.63559e-009
   193	7.52803e-010	1.25197e-009	2.00478e-009
   194	7.53198e-010	1.24633e-009	1.99953e-009
   195	7.50537e-010	8.95606e-010	1.64614e-009
   196	7.65408e-010	1.19634e-009	1.96175e-009
   197	7.81352e-010	1.22791e-009	2.00927e-009
   198	8.22644e-010	1.32468e-009	2.14732e-009
   199	8.23474e-010	9.63779e-010	1.78725e-009
   200	8.425e-010	1.35998e-009	2.20248e-009

Measurement: freq
  step	1/time_period
     1	1.83139e+009
     2	1.75486e+009
     3	1.72766e+009
     4	1.7329e+009
     5	1.71088e+009
     6	1.6986e+009
     7	1.68857e+009
     8	1.68536e+009
     9	1.70165e+009
    10	1.68104e+009
    11	1.67878e+009
    12	1.6776e+009
    13	1.6894e+009
    14	1.67549e+009
    15	1.67696e+009
    16	1.68496e+009
    17	1.65973e+009
    18	1.65726e+009
    19	1.67388e+009
    20	1.65354e+009
    21	1.64975e+009
    22	1.66838e+009
    23	1.64825e+009
    24	1.64779e+009
    25	1.64107e+009
    26	1.64011e+009
    27	1.63997e+009
    28	1.6388e+009
    29	1.6365e+009
    30	1.63484e+009
    31	1.63245e+009
    32	1.63167e+009
    33	1.65635e+009
    34	1.62801e+009
    35	1.62675e+009
    36	1.64373e+009
    37	1.62375e+009
    38	1.63132e+009
    39	1.61547e+009
    40	1.61945e+009
    41	1.62735e+009
    42	1.60112e+009
    43	1.60066e+009
    44	1.61112e+009
    45	1.61343e+009
    46	1.60224e+009
    47	1.59829e+009
    48	1.59422e+009
    49	1.59149e+009
    50	1.6152e+009
    51	1.59792e+009
    52	1.58209e+009
    53	1.58209e+009
    54	1.59506e+009
    55	1.58048e+009
    56	1.60583e+009
    57	1.57997e+009
    58	1.57974e+009
    59	1.60265e+009
    60	1.5773e+009
    61	1.57625e+009
    62	1.58169e+009
    63	1.57322e+009
    64	1.59936e+009
    65	1.59051e+009
    66	1.56951e+009
    67	1.58358e+009
    68	1.56754e+009
    69	1.57256e+009
    70	1.57518e+009
    71	1.56412e+009
    72	1.57536e+009
    73	1.55725e+009
    74	1.55472e+009
    75	1.55415e+009
    76	1.54918e+009
    77	1.54794e+009
    78	1.54726e+009
    79	1.57114e+009
    80	1.54472e+009
    81	1.54286e+009
    82	1.56532e+009
    83	1.54048e+009
    84	1.53126e+009
    85	1.5574e+009
    86	1.52869e+009
    87	1.5402e+009
    88	1.55296e+009
    89	1.55074e+009
    90	1.52354e+009
    91	1.53447e+009
    92	1.5191e+009
    93	1.52579e+009
    94	1.52017e+009
    95	1.52148e+009
    96	1.51241e+009
    97	1.53991e+009
    98	1.51638e+009
    99	1.5106e+009
   100	1.51034e+009
   101	1.51385e+009
   102	1.50874e+009
   103	1.50859e+009
   104	1.5229e+009
   105	1.51701e+009
   106	1.51732e+009
   107	1.5058e+009
   108	1.50523e+009
   109	1.50228e+009
   110	1.51667e+009
   111	1.49995e+009
   112	1.49986e+009
   113	1.51005e+009
   114	1.51604e+009
   115	1.51747e+009
   116	1.49393e+009
   117	1.49369e+009
   118	1.49367e+009
   119	1.49373e+009
   120	1.51569e+009
   121	1.50157e+009
   122	1.48324e+009
   123	1.49492e+009
   124	1.48179e+009
   125	1.48168e+009
   126	1.48154e+009
   127	1.48141e+009
   128	1.47793e+009
   129	1.48157e+009
   130	1.49685e+009
   131	1.48506e+009
   132	1.46997e+009
   133	1.49883e+009
   134	1.49797e+009
   135	1.46689e+009
   136	1.46517e+009
   137	1.46435e+009
   138	1.46794e+009
   139	1.4649e+009
   140	1.46062e+009
   141	1.47893e+009
   142	1.48338e+009
   143	1.45746e+009
   144	1.45584e+009
   145	1.4705e+009
   146	1.45485e+009
   147	1.48045e+009
   148	1.45065e+009
   149	1.48161e+009
   150	1.46664e+009
   151	1.44936e+009
   152	1.44342e+009
   153	1.44749e+009
   154	1.43954e+009
   155	1.44473e+009
   156	1.44521e+009
   157	1.4415e+009
   158	1.44828e+009
   159	1.43382e+009
   160	1.44446e+009
   161	1.42994e+009
   162	1.44506e+009
   163	1.42687e+009
   164	1.43496e+009
   165	1.44315e+009
   166	1.43417e+009
   167	1.4188e+009
   168	1.43942e+009
   169	1.41596e+009
   170	1.41553e+009
   171	1.41528e+009
   172	1.4142e+009
   173	1.41278e+009
   174	1.41258e+009
   175	1.42732e+009
   176	1.40681e+009
   177	1.40064e+009
   178	1.39237e+009
   179	1.39203e+009
   180	1.39101e+009
   181	1.41981e+009
   182	1.38496e+009
   183	1.38222e+009
   184	1.39998e+009
   185	1.38079e+009
   186	1.37807e+009
   187	1.38641e+009
   188	1.3786e+009
   189	1.37225e+009
   190	1.33922e+009
   191	1.33148e+009
   192	1.34798e+009
   193	1.32837e+009
   194	1.32767e+009
   195	1.33238e+009
   196	1.30649e+009
   197	1.27983e+009
   198	1.21559e+009
   199	1.21437e+009
   200	1.18694e+009

Measurement: nvth
  step	- vth
     1	-0.27785
     2	-0.308062
     3	-0.318487
     4	-0.324852
     5	-0.324854
     6	-0.329471
     7	-0.333206
     8	-0.33445
     9	-0.33521
    10	-0.336001
    11	-0.336845
    12	-0.337276
    13	-0.337276
    14	-0.338068
    15	-0.339688
    16	-0.341231
    17	-0.343878
    18	-0.344769
    19	-0.345226
    20	-0.34615
    21	-0.347518
    22	-0.347977
    23	-0.348055
    24	-0.348226
    25	-0.350917
    26	-0.351018
    27	-0.351219
    28	-0.351483
    29	-0.352326
    30	-0.352939
    31	-0.35382
    32	-0.354082
    33	-0.35428
    34	-0.355406
    35	-0.355847
    36	-0.358638
    37	-0.358956
    38	-0.36111
    39	-0.362947
    40	-0.363141
    41	-0.36486
    42	-0.365031
    43	-0.365188
    44	-0.365712
    45	-0.366
    46	-0.366001
    47	-0.366058
    48	-0.367481
    49	-0.368511
    50	-0.368844
    51	-0.37098
    52	-0.371775
    53	-0.371777
    54	-0.372234
    55	-0.372331
    56	-0.372384
    57	-0.372508
    58	-0.37259
    59	-0.373019
    60	-0.373445
    61	-0.373826
    62	-0.374603
    63	-0.374928
    64	-0.375035
    65	-0.376008
    66	-0.376217
    67	-0.376429
    68	-0.376881
    69	-0.377261
    70	-0.377656
    71	-0.378071
    72	-0.379794
    73	-0.380465
    74	-0.381351
    75	-0.381543
    76	-0.3833
    77	-0.383702
    78	-0.383946
    79	-0.384182
    80	-0.384873
    81	-0.385482
    82	-0.386267
    83	-0.386283
    84	-0.389466
    85	-0.389694
    86	-0.390517
    87	-0.390841
    88	-0.391877
    89	-0.392095
    90	-0.392123
    91	-0.392443
    92	-0.393632
    93	-0.395407
    94	-0.395759
    95	-0.395833
    96	-0.395989
    97	-0.396411
    98	-0.396449
    99	-0.396528
   100	-0.396621
   101	-0.396778
   102	-0.39717
   103	-0.39722
   104	-0.397754
   105	-0.397819
   106	-0.397969
   107	-0.398168
   108	-0.39836
   109	-0.399393
   110	-0.399571
   111	-0.40015
   112	-0.40018
   113	-0.401152
   114	-0.401245
   115	-0.401577
   116	-0.402191
   117	-0.402271
   118	-0.402514
   119	-0.404847
   120	-0.405016
   121	-0.405552
   122	-0.405795
   123	-0.405826
   124	-0.406282
   125	-0.40632
   126	-0.406367
   127	-0.406411
   128	-0.407593
   129	-0.407814
   130	-0.408649
   131	-0.40927
   132	-0.410245
   133	-0.410274
   134	-0.410514
   135	-0.411279
   136	-0.411845
   137	-0.412113
   138	-0.413131
   139	-0.413146
   140	-0.41336
   141	-0.413433
   142	-0.41393
   143	-0.414432
   144	-0.414959
   145	-0.415032
   146	-0.41529
   147	-0.41617
   148	-0.416691
   149	-0.416794
   150	-0.417148
   151	-0.417281
   152	-0.419085
   153	-0.419754
   154	-0.420358
   155	-0.4207
   156	-0.421197
   157	-0.421285
   158	-0.42168
   159	-0.422242
   160	-0.42334
   161	-0.423519
   162	-0.423824
   163	-0.424694
   164	-0.42471
   165	-0.425551
   166	-0.426496
   167	-0.427169
   168	-0.427403
   169	-0.428099
   170	-0.428237
   171	-0.428318
   172	-0.428702
   173	-0.429136
   174	-0.429215
   175	-0.431385
   176	-0.432511
   177	-0.433087
   178	-0.435766
   179	-0.435879
   180	-0.436206
   181	-0.436814
   182	-0.438162
   183	-0.439044
   184	-0.440354
   185	-0.441318
   186	-0.442355
   187	-0.443017
   188	-0.452564
   189	-0.453231
   190	-0.45405
   191	-0.455225
   192	-0.456211
   193	-0.456211
   194	-0.456431
   195	-0.462495
   196	-0.46311
   197	-0.471398
   198	-0.491079
   199	-0.494418
   200	-0.499733


Date: Sat Jun 17 10:16:49 2023
Total elapsed time: 69.498 seconds.

tnom = 27
temp = 27
method = modified trap
totiter = 2547
traniter = 2532
tranpoints = 1042
accept = 1042
rejected = 0
matrix size = 20
fillins = 14
solver = Normal
Matrix Compiler1: 3.12 KB object code size  0.5/0.3/[0.2]
Matrix Compiler2: 2.60 KB object code size  0.3/0.3/[0.2]

